
     RDKit          3D

 20 22  0  0  0  0  0  0  0  0999 V2000
  -37.5441   50.1759  -30.1753 O   0  0  0  0  0  0  0  0  0  0  0  0
  -37.1291   49.0349  -30.2729 C   0  0  0  0  0  0  0  0  0  0  0  0
  -35.9453   48.7392  -31.0787 C   0  0  0  0  0  0  0  0  0  0  0  0
  -35.4910   47.4527  -31.2286 C   0  0  0  0  0  0  0  0  0  0  0  0
  -34.2889   47.2357  -32.0283 C   0  0  0  0  0  0  0  0  0  0  0  0
  -33.1627   46.6203  -31.4607 C   0  0  0  0  0  0  0  0  0  0  0  0
  -31.9581   46.5708  -32.1821 C   0  0  0  0  0  0  0  0  0  0  0  0
  -31.8944   47.0891  -33.4863 C   0  0  0  0  0  0  0  0  0  0  0  0
  -30.7114   47.1174  -34.1564 O   0  0  0  0  0  0  0  0  0  0  0  0
  -33.0346   47.6247  -34.0853 C   0  0  0  0  0  0  0  0  0  0  0  0
  -34.2199   47.7105  -33.3462 C   0  0  0  0  0  0  0  0  0  0  0  0
  -36.0232   46.3789  -30.5795 O   0  0  0  0  0  0  0  0  0  0  0  0
  -37.1417   46.5688  -29.7936 C   0  0  0  0  0  0  0  0  0  0  0  0
  -37.6421   45.4427  -29.1386 C   0  0  0  0  0  0  0  0  0  0  0  0
  -38.7578   45.5479  -28.3137 C   0  0  0  0  0  0  0  0  0  0  0  0
  -39.1511   44.4553  -27.6224 O   0  0  0  0  0  0  0  0  0  0  0  0
  -39.4433   46.7607  -28.1958 C   0  0  0  0  0  0  0  0  0  0  0  0
  -38.9670   47.8928  -28.8685 C   0  0  0  0  0  0  0  0  0  0  0  0
  -39.6819   49.0398  -28.7646 O   0  0  0  0  0  0  0  0  0  0  0  0
  -37.7700   47.8283  -29.6330 C   0  0  0  0  0  0  0  0  0  0  0  0
  9  8  1  0
  8  7  2  0
  7  6  1  0
  6  5  2  0
  5  4  1  0
  4 12  1  0
 12 13  1  0
 13 14  2  0
 14 15  1  0
 15 16  1  0
 15 17  2  0
 17 18  1  0
 18 19  1  0
 18 20  2  0
 20  2  1  0
  2  1  2  0
  2  3  1  0
  5 11  1  0
 11 10  2  0
 10  8  1  0
  3  4  2  0
 20 13  1  0
M  END
$$$$
